Version 4
SHEET 1 880 680
WIRE 464 -112 64 -112
WIRE 464 -16 464 -32
WIRE 64 64 64 -112
WIRE 240 64 160 64
WIRE 368 64 320 64
WIRE 416 64 368 64
WIRE 160 144 64 144
WIRE 256 144 160 144
WIRE 368 144 256 144
WIRE 464 144 464 80
WIRE 464 144 368 144
FLAG 256 144 0
SYMBOL voltage 64 48 R0
SYMATTR InstName V1
SYMATTR Value 3
SYMBOL voltage 160 48 R0
SYMATTR InstName V2
SYMATTR Value 3
SYMBOL res 336 48 R90
WINDOW 0 0 56 VBottom 2
WINDOW 3 32 56 VTop 2
SYMATTR InstName R1
SYMATTR Value 220
SYMBOL res 384 160 R180
WINDOW 0 36 76 Left 2
WINDOW 3 36 40 Left 2
SYMATTR InstName R2
SYMATTR Value 10k
SYMBOL nmos 416 -16 R0
SYMATTR InstName M1
SYMBOL res 448 -128 R0
SYMATTR InstName R3
SYMATTR Value 100k
TEXT 30 168 Left 2 !.tran 10m
