Version 4
SHEET 1 880 680
WIRE 192 -96 32 -96
WIRE 32 -64 32 -96
WIRE 192 32 192 -96
WIRE 192 32 112 32
WIRE 192 144 192 32
WIRE 0 160 -48 160
WIRE 112 160 112 112
WIRE 112 160 80 160
WIRE 144 160 112 160
WIRE -48 208 -48 160
WIRE 256 240 192 240
WIRE -48 320 -48 288
WIRE 192 320 -48 320
WIRE 192 352 192 320
FLAG 192 352 0
FLAG 32 16 0
FLAG 256 240 out
SYMBOL res 96 144 R90
WINDOW 0 0 56 VBottom 2
WINDOW 3 32 56 VTop 2
SYMATTR InstName R1
SYMATTR Value 220
SYMBOL voltage -48 192 R0
WINDOW 123 0 0 Left 0
WINDOW 39 0 0 Left 0
SYMATTR InstName V1
SYMATTR Value 0
SYMBOL voltage 32 -80 R0
WINDOW 123 0 0 Left 0
WINDOW 39 0 0 Left 0
SYMATTR InstName V2
SYMATTR Value 3
SYMBOL res 96 16 R0
SYMATTR InstName R2
SYMATTR Value 10k
SYMBOL pmos 144 240 M180
SYMATTR InstName M1
SYMBOL res 176 224 R0
SYMATTR InstName R3
SYMATTR Value 100k
TEXT -80 360 Left 2 !.tran 10m
