Version 4
SHEET 1 880 680
WIRE 160 80 -80 80
WIRE 336 80 160 80
WIRE 160 192 160 160
WIRE -80 240 -80 160
WIRE -16 240 -80 240
WIRE 80 240 -16 240
WIRE 336 240 336 160
WIRE 336 240 176 240
FLAG -16 240 0
SYMBOL res 144 64 R0
SYMATTR InstName R1
SYMATTR Value 10k
SYMBOL res 320 64 R0
SYMATTR InstName R2
SYMATTR Value 100k
SYMBOL nmos 80 192 M90
SYMATTR InstName M1
SYMATTR Value Si7336ADP
SYMBOL voltage -80 64 R0
SYMATTR InstName V1
SYMATTR Value 3
TEXT -114 326 Left 2 !.tran 10m
